25
Coordinates from ORCA-job geom
  Cu  0.00000003951988      0.00000000273752     -0.00000029933483
  S   1.66193093716071      1.61559742241981     -0.00000024064134
  C   3.15164210047135      0.71174730240516     -0.00000009566524
  S   -1.66193086241242      1.61559737362348     -0.00000015301711
  C   -3.15164205480026      0.71174727543198     -0.00000006234488
  S   1.66193089150691     -1.61559743889105     -0.00000013727291
  C   3.15164211613400     -0.71174748010075     -0.00000005007106
  S   -1.66193085303990     -1.61559741321758     -0.00000025602035
  C   -3.15164211143784     -0.71174746634739     -0.00000010762958
  C   -4.38546065442939     -1.37805322204430     -0.00000002548099
  C   -4.38546045149156      1.37805313152466      0.00000006155184
  C   -5.59618816800786      0.69641974533923      0.00000014127758
  H   -4.37504228068002      2.46324890917538      0.00000009618261
  C   -5.59618825963186     -0.69641963224136      0.00000009755863
  H   -4.37504267978721     -2.46324901481113     -0.00000005926359
  H   -6.53020068669138      1.25074875405568      0.00000023818821
  H   -6.53020082322409     -1.25074849117586      0.00000015920898
  C   4.38546045450325      1.37805317682546     -0.00000002132680
  C   4.38546059457691     -1.37805324879820      0.00000006537991
  C   5.59618802546120      0.69641971026711      0.00000009403655
  H   4.37504251932215      2.46324899351106     -0.00000005705700
  C   5.59618811778479     -0.69641960994690      0.00000013772730
  H   4.37504278254489     -2.46324906563663      0.00000009870109
  H   6.53020053635735      1.25074865170068      0.00000014861034
  H   6.53020077029042     -1.25074836580606      0.00000022670264
