25
Coordinates from ORCA-job geom
  Cu  0.00000009987536      0.00000026267566     -0.00000018812582
  Se  1.75596901402674      1.58888328650691     -0.00000019170913
  C   3.12663903875477      0.69348821768488     -0.00000010007318
  Se  -1.75596884203358      1.58888326986707     -0.00000001319007
  C   -3.12663886503503      0.69348819685781     -0.00000000121105
  Se  1.75596886593378     -1.58888291008823     -0.00000023577267
  C   3.12663894821635     -0.69348796449450     -0.00000011484200
  Se  -1.75596864783800     -1.58888291652521     -0.00000000729352
  C   -3.12663874059660     -0.69348797943597      0.00000000970934
  C   -4.36889328656648     -1.31886237537713      0.00000004076433
  C   -4.36889349922409      1.31886236567413      0.00000001330496
  C   -5.59789552609257      0.69422002153421      0.00000003946355
  H   -4.36073424483650      2.39889937841244      0.00000000032038
  C   -5.59789543683455     -0.69422031482202      0.00000005570284
  H   -4.36073380642650     -2.39889938595654      0.00000005243094
  H   -6.51207845974490      1.27851542637630      0.00000004768060
  H   -6.51207826941100     -1.27851588259391      0.00000007902739
  C   4.36889365766814      1.31886237242916      0.00000000283682
  C   4.36889340240572     -1.31886235055266     -0.00000001880150
  C   5.59789561724194      0.69422003806936      0.00000010064699
  H   4.36073453705182      2.39889941194174      0.00000001186605
  C   5.59789546704737     -0.69422029615906      0.00000009180931
  H   4.36073399992832     -2.39889937796242     -0.00000002724633
  H   6.51207765515366      1.27851559095881      0.00000018447063
  H   6.51207732133582     -1.27851608502083      0.00000016823113
