24
Coordinates from ORCA-job geom
  V   -0.10097910275807     -0.30840707625580      0.57985425650554
  S   1.69194246594501      1.40179200356088      1.06531561456576
  S   -1.31700651383430      1.69594327110531     -0.10194564064957
  S   1.62922036924736     -1.76781631905150     -0.41635068044195
  S   -1.55373826604650     -1.68084743480115     -0.88903512565051
  O   -0.50275949328319     -0.75430390482554      2.06340547802424
  C   -2.99787548671223      1.19617490554115     -0.68072330034940
  C   -3.30798453065457     -1.34383591900065     -0.42883939553526
  C   -3.62377340123085      0.05012208344630      0.12275334308000
  H   -3.63072591072033     -2.09239635949636      0.30275801153692
  H   -3.90246770475681     -1.50806268613215     -1.33584041668905
  H   -3.27767540089117      0.12230682304410      1.15578054979386
  H   -4.72165948951372      0.16248995695131      0.14191184801896
  H   -2.94895930279196      0.91386233266590     -1.73687679954666
  H   -3.62571958448223      2.09025205938753     -0.60511643646297
  C   2.81997180687668      1.20880400492686     -0.37441171082529
  C   3.22380829545324     -1.23441306548414      0.33396214710940
  C   3.82020352198510      0.05261108926534     -0.24388686700383
  H   3.94023156076300     -2.05374378454709      0.20709130541256
  H   3.06011522632240     -1.09423784833294      1.40133270163995
  H   4.24760734932661     -0.15497718484316     -1.23595475026767
  H   4.65236744957228      0.36573437576916      0.40506979639027
  H   3.36723843716469      2.14758182849222     -0.51179205039878
  H   2.20906263530191      1.05686345527080     -1.26351008328193
