32
Coordinates from ORCA-job geom
  V   -0.00660623370900     -0.01707779156467      1.38301046000712
  S   1.67678254368634      1.62585720788259      0.71942838661304
  S   -1.65520173663437      1.60658676435455      0.59930514103950
  S   1.68589305097148     -1.61276811324915      0.63614623946282
  S   -1.64599912019894     -1.63334392688434      0.56036874448694
  O   -0.04983262177081     -0.04540459262878      2.97761536853892
  C   -3.12595119381877      0.66488771733392      0.39174364801957
  C   -3.12178800334693     -0.69552845348931      0.37534189580459
  C   3.16328631061486      0.69329005877650      0.60584736272984
  C   3.16725871234967     -0.66697097488494      0.56978804919228
  S   -4.61755879562215      1.63467975358868      0.18657871992147
  S   -4.60803343154782     -1.66868057506922      0.14777617374184
  S   4.66933736840056     -1.63264965974630      0.43359721199143
  S   4.66053983863868      1.67319560879795      0.52519091027135
  C   -5.12333605154922     -1.28862288522784     -1.57370364484433
  C   5.30957489998489     -1.22070631166329     -1.23737464348391
  C   -5.13078616900875      1.29271255814889     -1.54335323086206
  C   5.30534606232439      1.35867462951498     -1.16498493326922
  C   -5.91586765684848      0.00232497240803     -1.77406436563099
  H   -4.23216664930720      1.32122363816192     -2.16187667420780
  H   -5.75136325082166      2.14952951035388     -1.82047192573766
  H   -6.29195703869077      0.01342895409607     -2.80861151600822
  H   -6.79050509394188     -0.00798031101091     -1.11702234231185
  H   -5.73859158973363     -2.14224531383096     -1.87162069903829
  H   -4.22432682168116     -1.29683885442820     -2.19220362093977
  C   6.11111349226805      0.07453814862518     -1.35311128259053
  H   5.94200858413321      2.22143919365589     -1.38007536335092
  H   4.45715166157827      1.39443575159904     -1.85064054322920
  H   6.92974449448321      0.05526907496492     -0.62726428919671
  H   6.56927053874998      0.10353997427716     -2.35355720302707
  H   4.46037191721355     -1.21943322680810     -1.92250607907739
  H   5.94861483144899     -2.06755790192245     -1.50264451042766
