48

V 0.5918550105768282 0.2384047802109179 2.1236521212178157
S 1.905344670762947 1.8358387384017112 0.7764221444912194
S -1.269824420350877 1.8343005868147704 1.7136898973775159
S 2.0475067197162926 -1.4952738575762987 1.133257120336671
S -1.145619493325666 -1.5259604050000017 2.0710603405763646
O 1.040364435786853 0.40174190792427755 3.6350433667821487
C -2.647826881782541 0.7524387364705799 1.6536714233594705
C -2.603735979562012 -0.5833983620556977 1.7864246158847847
C 3.307071245660237 0.8400805178536329 0.3874459526405439
C 3.364640726450259 -0.4969447707431906 0.5344489816493297
S -4.261476395228342 1.459161037192399 1.2526263917548452
S -4.164057001875977 -1.479603681827502 1.5807469337644577
S 4.89374811929916 -1.2911139230429933 0.011857196672222887
S 4.763084481583427 1.6441658147808471 -0.3072596998097265
C -5.172291301214556 -0.06006505478015775 1.3118643391144589
C 5.626580792593088 0.14581561340467375 -0.7015941665214884
C -6.509737922709153 -0.13399620925921082 1.132649769779588
C 6.764526840502338 0.11739491986497634 -1.4323050548615928
S -7.56670163510701 1.2791122079658002 0.7760092268967823
S -7.441653311374547 -1.6686273596328278 1.1384647547360423
S 7.528815282336388 1.5523306433579143 -2.183392830776785
S 7.670126622713308 -1.3654804348294496 -1.8457186463453679
C 8.258048713623046 -0.7073022007147008 -3.3863297859805646
C 8.198423342602956 0.626072324705272 -3.5538197491800565
C -8.988423414725126 -0.864669913083183 1.5457812613904622
C -9.046150982035359 0.4736416902005141 1.3680843402126401
S 8.724434249691578 1.5636248386981881 -4.969704495315247
S 8.896785164354814 -1.8782144333486535 -4.568869729430983
S -10.308539545770547 -1.915829212708778 2.0681184802664347
S -10.450864849776348 1.5038570778716536 1.6342194958525451
C 10.650665151308331 -1.3689089006620783 -4.7679728199799
C 10.53024121825039 1.1940305798797517 -5.061689370941329
C 10.916260723681862 -0.16004297780080293 -5.661002274132612
H 10.950191492688738 1.3216706874628572 -4.07251316429842
H 10.919729415396368 1.9977860185225176 -5.701050536961124
H 11.996423858143526 -0.13785665926752821 -5.873505329251226
H 10.419010163227151 -0.2991354503989631 -6.624658961472743
H 11.125940834405757 -2.2547202903235566 -5.207237876710082
H 11.076282316093051 -1.2325717706099366 -3.768510053814569
C -11.662743462218781 0.8511849426601124 0.3982865801104575
C -11.558000814564908 -1.7159695756011686 0.7335091440490464
C -12.393265612103068 -0.4333337992388035 0.7705961692300588
H -12.208210698776677 -2.5855042080121162 0.8492647849745107
H -11.039482922368943 -1.8110166422753644 -0.2274961320207315
H -11.144648938047169 0.7421194125784166 -0.5574387400838324
H -12.394101732798143 1.6651630329515155 0.28861657787683176
H -13.226089592659896 -0.5668866438887379 0.06345396788600648
H -12.842144314388564 -0.32457686782573336 1.7673778410944856
